16
 
B 6.391 5.454 3.205
B 7.069 6.576 3.195
B 4.934 5.39 3.204
B 3.764 6.241 3.202
B 6.391 5.454 3.205
B 7.069 6.576 3.195
B 7.065 4.169 3.204
B 8.412 3.622 3.203
B 7.069 6.576 3.195
B 6.391 5.454 3.205
B 6.394 7.861 3.196
B 5.047 8.408 3.197
B 8.526 6.641 3.197
B 9.696 5.789 3.198
B 7.069 6.576 3.195
B 6.391 5.454 3.205
16
 
B 6.391 5.454 3.205
B 7.069 6.576 3.195
B 4.934 5.39 3.204
B 3.764 6.241 3.202
B 6.391 5.454 3.205
B 7.069 6.576 3.195
B 7.065 4.169 3.204
B 8.412 3.622 3.203
B 7.069 6.576 3.195
B 6.391 5.454 3.205
B 6.394 7.861 3.196
B 5.047 8.408 3.197
B 8.526 6.641 3.197
B 9.696 5.789 3.198
B 7.069 6.576 3.195
B 6.391 5.454 3.205
16
 
B 6.391 5.454 3.205
B 7.069 6.576 3.195
B 4.934 5.39 3.204
B 3.764 6.241 3.202
B 6.391 5.454 3.205
B 7.069 6.576 3.195
B 7.065 4.169 3.204
B 8.412 3.622 3.203
B 7.069 6.576 3.195
B 6.391 5.454 3.205
B 6.394 7.861 3.196
B 5.047 8.408 3.197
B 8.526 6.641 3.197
B 9.696 5.789 3.198
B 7.069 6.576 3.195
B 6.391 5.454 3.205
16
 
B 6.391 5.454 3.205
B 7.069 6.576 3.195
B 4.934 5.39 3.204
B 3.764 6.241 3.202
B 6.391 5.454 3.205
B 7.069 6.576 3.195
B 7.065 4.169 3.204
B 8.412 3.622 3.203
B 7.069 6.576 3.195
B 6.391 5.454 3.205
B 6.394 7.861 3.196
B 5.047 8.408 3.197
B 8.526 6.641 3.197
B 9.696 5.789 3.198
B 7.069 6.576 3.195
B 6.391 5.454 3.205
16
 
B 6.391 5.454 3.205
B 7.069 6.576 3.195
B 4.934 5.39 3.204
B 3.764 6.241 3.202
B 6.391 5.454 3.205
B 7.069 6.576 3.195
B 7.065 4.169 3.204
B 8.412 3.622 3.203
B 7.069 6.576 3.195
B 6.391 5.454 3.205
B 6.394 7.861 3.196
B 5.047 8.408 3.197
B 8.526 6.641 3.197
B 9.696 5.789 3.198
B 7.069 6.576 3.195
B 6.391 5.454 3.205
16
 
B 6.391 5.454 3.205
B 7.069 6.576 3.195
B 4.934 5.39 3.204
B 3.764 6.241 3.202
B 6.391 5.454 3.205
B 7.069 6.576 3.195
B 7.065 4.169 3.204
B 8.412 3.622 3.203
B 7.069 6.576 3.195
B 6.391 5.454 3.205
B 6.394 7.861 3.196
B 5.047 8.408 3.197
B 8.526 6.641 3.197
B 9.696 5.789 3.198
B 7.069 6.576 3.195
B 6.391 5.454 3.205
16
 
B 6.391 5.454 3.205
B 7.069 6.576 3.195
B 4.934 5.39 3.204
B 3.764 6.241 3.202
B 6.391 5.454 3.205
B 7.069 6.576 3.195
B 7.065 4.169 3.204
B 8.412 3.622 3.203
B 7.069 6.576 3.195
B 6.391 5.454 3.205
B 6.394 7.861 3.196
B 5.047 8.408 3.197
B 8.526 6.641 3.197
B 9.696 5.789 3.198
B 7.069 6.576 3.195
B 6.391 5.454 3.205
16
 
B 6.391 5.454 3.205
B 7.069 6.576 3.195
B 4.934 5.39 3.204
B 3.764 6.241 3.202
B 6.391 5.454 3.205
B 7.069 6.576 3.195
B 7.065 4.169 3.204
B 8.412 3.622 3.203
B 7.069 6.576 3.195
B 6.391 5.454 3.205
B 6.394 7.861 3.196
B 5.047 8.408 3.197
B 8.526 6.641 3.197
B 9.696 5.789 3.198
B 7.069 6.576 3.195
B 6.391 5.454 3.205
16
 
B 6.391 5.454 3.205
B 7.069 6.576 3.195
B 4.934 5.39 3.204
B 3.764 6.241 3.202
B 6.391 5.454 3.205
B 7.069 6.576 3.195
B 7.065 4.169 3.204
B 8.412 3.622 3.203
B 7.069 6.576 3.195
B 6.391 5.454 3.205
B 6.394 7.861 3.196
B 5.047 8.408 3.197
B 8.526 6.641 3.197
B 9.696 5.789 3.198
B 7.069 6.576 3.195
B 6.391 5.454 3.205
