24
 
P 6.391 5.454 3.205
P 4.934 5.39 3.204
P 4.738 3.992 3.206
P 5.949 3.297 3.206
P 7.065 4.169 3.204
P 8.526 6.641 3.197
P 7.069 6.576 3.195
P 6.394 7.861 3.196
P 7.511 8.733 3.194
P 8.722 8.038 3.195
P 5.047 8.408 3.197
P 3.805 7.673 3.2
P 3.764 6.241 3.202
P 4.934 5.39 3.204
P 6.391 5.454 3.205
P 7.069 6.576 3.195
P 6.394 7.861 3.196
P 8.526 6.641 3.197
P 7.069 6.576 3.195
P 6.391 5.454 3.205
P 7.065 4.169 3.204
P 8.412 3.622 3.203
P 9.654 4.357 3.201
P 9.696 5.789 3.198
24
 
P 6.391 5.454 3.205
P 4.934 5.39 3.204
P 4.738 3.992 3.206
P 5.949 3.297 3.206
P 7.065 4.169 3.204
P 8.526 6.641 3.197
P 7.069 6.576 3.195
P 6.394 7.861 3.196
P 7.511 8.733 3.194
P 8.722 8.038 3.195
P 5.047 8.408 3.197
P 3.805 7.673 3.2
P 3.764 6.241 3.202
P 4.934 5.39 3.204
P 6.391 5.454 3.205
P 7.069 6.576 3.195
P 6.394 7.861 3.196
P 8.526 6.641 3.197
P 7.069 6.576 3.195
P 6.391 5.454 3.205
P 7.065 4.169 3.204
P 8.412 3.622 3.203
P 9.654 4.357 3.201
P 9.696 5.789 3.198
24
 
P 6.391 5.454 3.205
P 4.934 5.39 3.204
P 4.738 3.992 3.206
P 5.949 3.297 3.206
P 7.065 4.169 3.204
P 8.526 6.641 3.197
P 7.069 6.576 3.195
P 6.394 7.861 3.196
P 7.511 8.733 3.194
P 8.722 8.038 3.195
P 5.047 8.408 3.197
P 3.805 7.673 3.2
P 3.764 6.241 3.202
P 4.934 5.39 3.204
P 6.391 5.454 3.205
P 7.069 6.576 3.195
P 6.394 7.861 3.196
P 8.526 6.641 3.197
P 7.069 6.576 3.195
P 6.391 5.454 3.205
P 7.065 4.169 3.204
P 8.412 3.622 3.203
P 9.654 4.357 3.201
P 9.696 5.789 3.198
24
 
P 6.391 5.454 3.205
P 4.934 5.39 3.204
P 4.738 3.992 3.206
P 5.949 3.297 3.206
P 7.065 4.169 3.204
P 8.526 6.641 3.197
P 7.069 6.576 3.195
P 6.394 7.861 3.196
P 7.511 8.733 3.194
P 8.722 8.038 3.195
P 5.047 8.408 3.197
P 3.805 7.673 3.2
P 3.764 6.241 3.202
P 4.934 5.39 3.204
P 6.391 5.454 3.205
P 7.069 6.576 3.195
P 6.394 7.861 3.196
P 8.526 6.641 3.197
P 7.069 6.576 3.195
P 6.391 5.454 3.205
P 7.065 4.169 3.204
P 8.412 3.622 3.203
P 9.654 4.357 3.201
P 9.696 5.789 3.198
24
 
P 6.391 5.454 3.205
P 4.934 5.39 3.204
P 4.738 3.992 3.206
P 5.949 3.297 3.206
P 7.065 4.169 3.204
P 8.526 6.641 3.197
P 7.069 6.576 3.195
P 6.394 7.861 3.196
P 7.511 8.733 3.194
P 8.722 8.038 3.195
P 5.047 8.408 3.197
P 3.805 7.673 3.2
P 3.764 6.241 3.202
P 4.934 5.39 3.204
P 6.391 5.454 3.205
P 7.069 6.576 3.195
P 6.394 7.861 3.196
P 8.526 6.641 3.197
P 7.069 6.576 3.195
P 6.391 5.454 3.205
P 7.065 4.169 3.204
P 8.412 3.622 3.203
P 9.654 4.357 3.201
P 9.696 5.789 3.198
24
 
P 6.391 5.454 3.205
P 4.934 5.39 3.204
P 4.738 3.992 3.206
P 5.949 3.297 3.206
P 7.065 4.169 3.204
P 8.526 6.641 3.197
P 7.069 6.576 3.195
P 6.394 7.861 3.196
P 7.511 8.733 3.194
P 8.722 8.038 3.195
P 5.047 8.408 3.197
P 3.805 7.673 3.2
P 3.764 6.241 3.202
P 4.934 5.39 3.204
P 6.391 5.454 3.205
P 7.069 6.576 3.195
P 6.394 7.861 3.196
P 8.526 6.641 3.197
P 7.069 6.576 3.195
P 6.391 5.454 3.205
P 7.065 4.169 3.204
P 8.412 3.622 3.203
P 9.654 4.357 3.201
P 9.696 5.789 3.198
24
 
P 6.391 5.454 3.205
P 4.934 5.39 3.204
P 4.738 3.992 3.206
P 5.949 3.297 3.206
P 7.065 4.169 3.204
P 8.526 6.641 3.197
P 7.069 6.576 3.195
P 6.394 7.861 3.196
P 7.511 8.733 3.194
P 8.722 8.038 3.195
P 5.047 8.408 3.197
P 3.805 7.673 3.2
P 3.764 6.241 3.202
P 4.934 5.39 3.204
P 6.391 5.454 3.205
P 7.069 6.576 3.195
P 6.394 7.861 3.196
P 8.526 6.641 3.197
P 7.069 6.576 3.195
P 6.391 5.454 3.205
P 7.065 4.169 3.204
P 8.412 3.622 3.203
P 9.654 4.357 3.201
P 9.696 5.789 3.198
24
 
P 6.391 5.454 3.205
P 4.934 5.39 3.204
P 4.738 3.992 3.206
P 5.949 3.297 3.206
P 7.065 4.169 3.204
P 8.526 6.641 3.197
P 7.069 6.576 3.195
P 6.394 7.861 3.196
P 7.511 8.733 3.194
P 8.722 8.038 3.195
P 5.047 8.408 3.197
P 3.805 7.673 3.2
P 3.764 6.241 3.202
P 4.934 5.39 3.204
P 6.391 5.454 3.205
P 7.069 6.576 3.195
P 6.394 7.861 3.196
P 8.526 6.641 3.197
P 7.069 6.576 3.195
P 6.391 5.454 3.205
P 7.065 4.169 3.204
P 8.412 3.622 3.203
P 9.654 4.357 3.201
P 9.696 5.789 3.198
24
 
P 6.391 5.454 3.205
P 4.934 5.39 3.204
P 4.738 3.992 3.206
P 5.949 3.297 3.206
P 7.065 4.169 3.204
P 8.526 6.641 3.197
P 7.069 6.576 3.195
P 6.394 7.861 3.196
P 7.511 8.733 3.194
P 8.722 8.038 3.195
P 5.047 8.408 3.197
P 3.805 7.673 3.2
P 3.764 6.241 3.202
P 4.934 5.39 3.204
P 6.391 5.454 3.205
P 7.069 6.576 3.195
P 6.394 7.861 3.196
P 8.526 6.641 3.197
P 7.069 6.576 3.195
P 6.391 5.454 3.205
P 7.065 4.169 3.204
P 8.412 3.622 3.203
P 9.654 4.357 3.201
P 9.696 5.789 3.198
24
 
P 6.391 5.454 3.205
P 4.934 5.39 3.204
P 4.738 3.992 3.206
P 5.949 3.297 3.206
P 7.065 4.169 3.204
P 8.526 6.641 3.197
P 7.069 6.576 3.195
P 6.394 7.861 3.196
P 7.511 8.733 3.194
P 8.722 8.038 3.195
P 5.047 8.408 3.197
P 3.805 7.673 3.2
P 3.764 6.241 3.202
P 4.934 5.39 3.204
P 6.391 5.454 3.205
P 7.069 6.576 3.195
P 6.394 7.861 3.196
P 8.526 6.641 3.197
P 7.069 6.576 3.195
P 6.391 5.454 3.205
P 7.065 4.169 3.204
P 8.412 3.622 3.203
P 9.654 4.357 3.201
P 9.696 5.789 3.198
